REMARK  0 active torsions:
REMARK  status: ('A' for Active; 'I' for Inactive)
ROOT
HETATM    1  C1  UNL     1      -3.242  -0.288  -0.980  1.00  0.00     0.157 C 
HETATM    2  N1  UNL     1      -2.167   0.309  -0.193  1.00  0.00    -0.338 N 
HETATM    3  C2  UNL     1      -2.284   1.286   0.739  1.00  0.00     0.212 A 
HETATM    4  N2  UNL     1      -1.096   1.635   1.299  1.00  0.00    -0.223 NA
HETATM    5  C3  UNL     1      -0.220   0.825   0.672  1.00  0.00     0.167 A 
HETATM    6  C4  UNL     1      -0.853   0.031  -0.222  1.00  0.00     0.151 A 
HETATM    7  C5  UNL     1      -0.137  -0.879  -0.987  1.00  0.00     0.282 A 
HETATM    8  O1  UNL     1      -0.731  -1.635  -1.805  1.00  0.00    -0.265 OA
HETATM    9  N3  UNL     1       1.229  -0.932  -0.828  1.00  0.00    -0.269 N 
HETATM   10  C6  UNL     1       1.853  -0.125   0.111  1.00  0.00     0.332 A 
HETATM   11  O2  UNL     1       3.105  -0.199   0.268  1.00  0.00    -0.246 OA
HETATM   12  N4  UNL     1       1.124   0.759   0.877  1.00  0.00    -0.286 N 
HETATM   13  C7  UNL     1       1.784   1.650   1.841  1.00  0.00     0.163 C 
HETATM   14  C8  UNL     1       2.022  -1.898  -1.606  1.00  0.00     0.164 C 
ENDROOT
TORSDOF 0
